29

C      3.770865    1.941748   -0.422869
C      2.398853    1.709787   -0.565292
C      4.617845    0.914097    0.004979
H      4.178604    2.919540   -0.644589
C      1.868834    0.443055   -0.276599
H      1.755558    2.515831   -0.897456
C      4.098064   -0.352127    0.291979
H      5.678774    1.099094    0.113026
C      0.500050    0.179614   -0.409894
C      2.726407   -0.593559    0.152858
H      4.761759   -1.142508    0.620232
C     -0.003737   -1.094921   -0.101002
H     -0.166145    0.955738   -0.766718
N      2.218633   -1.825298    0.422811
N     -1.399065   -1.408336   -0.251498
C      0.892090   -2.095975    0.299530
C     -2.468849   -0.467210   -0.056719
C     -3.662837   -0.620907   -0.778351
C     -2.369321    0.567805    0.891858
C     -4.725550    0.267194   -0.584816
H     -3.764851   -1.423962   -1.497489
C     -3.434185    1.453827    1.082720
C     -4.609847    1.306239    0.342201
H     -5.639686    0.148267   -1.152004
H     -3.350664    2.250446    1.810684
H     -5.433741    1.991889    0.492339
H     -1.652785   -2.386369   -0.520373
H     -1.477796    0.680512    1.494909
H      0.531324   -3.091422    0.523343
