27

C     -4.518951   -0.273159    0.000553
C     -3.460400   -1.185173    0.000573
C     -4.267698    1.101038    0.000304
H     -5.539663   -0.633336    0.000688
C     -2.134020   -0.728715    0.000363
H     -3.678424   -2.246577    0.000801
C     -2.954891    1.579501    0.000061
H     -5.094905    1.799105    0.000269
C     -1.065851   -1.653781    0.000430
C     -1.873804    0.685182    0.000111
H     -2.781294    2.648525   -0.000112
C      0.221342   -1.142569    0.000233
H     -1.235245   -2.723821    0.000619
N     -0.587858    1.164269   -0.000068
N      1.392630   -1.816560    0.000336
C      0.430556    0.274239   -0.000043
C      2.329994   -0.832092    0.000106
C      3.711901   -1.017334    0.000115
C      1.786855    0.444874   -0.000110
C      4.536863    0.123073   -0.000088
H      4.140489   -2.011233    0.000284
C      2.578224    1.590677   -0.000277
C      3.973559    1.418516   -0.000286
H      5.612746    0.006096   -0.000035
H      2.138713    2.579645   -0.000424
H      4.621027    2.285680   -0.000436
H     -0.389592    2.190621   -0.000267
